docs/Sample/DS_ONS_102025_RV2D11/media.pwf
TITU
ONS PDPM Outubro 2025 - MEDIA                                                   
DAGR
(AG (         D E S C R I C A O        )
  6 SUBMERCADOS DO SIN                   
(ID O (       Nome de Identificacao      )
  1   SUDESTE/CENTRO-OESTE                 
  2   SUL                                  
  3   NORDESTE                             
  4   NORTE                                
FAGR
99999
DOPC IMPR
(Op) E (Op) E (Op) E (Op) E (Op) E (Op) E (Op) E (Op) E (Op) E (Op) E
STEP L NEWT L RCVG L RMON L FILE L SUBS L CONT L NOVO L CELO L MFCT L
AREG L STPO L VLCR L PMIN L CPHS L INMN L IANG L UNPG L
99999
DCTE
(Mn) ( Val) (Mn) ( Val) (Mn) ( Val) (Mn) ( Val) (Mn) ( Val) (Mn) ( Val) 
BASE   100. DASE   100. TEPA    .01 EXST    .04 TETP     5. TBPA     5.
TLPP     1. TEPR    .01 QLST    .04 TLPR    .01 TLPQ     2. TSBZ    .01
TSBA     5. ASTP    .05 VSTP     5. TLVC    .05 TLTC    .01 TSFR  .1E-7
ZMAX   500. TLPV     .5 VDVM   200. VDVN    40. TUDC   .001 TADC    .01
PGER    30. TPST    .02 VFLD    70. ZMIN  .0001 HIST    470 LFIT     10
ACIT    100 LFCV      1 DCIT     10 VSIT     10 LPIT     50 LFLP     10
PDIT     10 LCRT    200 LPRT     60 CSTP     5. ASDC     1.
ICIT     50 DMAX      5 FDIV     2. ICMN    .05 VART     5. TSTP     32
ICMV     .5 APAS    90. CPAR    70. VAVT     2. VAVF     5. VMVF    15.
VPVT     2. VPVF     5. VPMF    10. VSVF    20. VINF     1. VSUP     1.
TLSI     0. NDIR    20. STTR     5. TRPT   100. STIR     1. BFPO     1.
LFPO     .1 TLMT     0. TLMF     0. TLMG     0. PARS    10.            
99999
DBAR
(Num)OETGb(   nome   )Gl( V)( A)( Pg)( Qg)( Qn)( Qm)(Bc  )( Pl)( Ql)( Sh)Are(Vf)M(1)(2)(3)(4)(5)(6)(7)(8)(9)(10
   10 L1 VANGRA1UNE001 5 992-450     -99.1   0.   0.                     2211000                  1                
   11 L1 VANGRA2UNE001 5 984-450     -287.   0.   0.                     2211000                  1                
   12 L1 VLCBARRUHE006 5 997-459     -541.   0.   0.                     2041000                  1                
   13 L1 TLCBARRSIN000 51020-461     -48.4   0.   0.                     2041000                  1                
   14 L1 VFUNIL-UHE003 5 975-461     -104.   0.   0.                     2251000                  1                
   16 L1 VFURNASUHE008 5 989-465     -703.   0.   0.                     1891000                  1                
   17 L1 TFURNASSIN000 51012-471     -59.6   0.   0.                     1891000                  1                
   18 L1 VITUMBIUHE005 5 975-472     -927.   0.   0.                     1881000                  1                
   19 L1 TITUMBISIN000 51006-472     -81.4   0.   0.                     1881000                  1                
   20 L1 VMARIMBUHE008 51034-420     -583.   0.   0.                     1881000                  1                
   21 L1 VMANSO-UHE002 5 990-498     -17.5   0.   0.                     1371000                  1                
   22 L1 VM.MORAUHE006 51017-457     -76.8   0.   0.                     1891000                  1                
   23 L1 TC.BRAVSIN000 51008-544     -49.9   0.   0.                     1491000                  1                
   24 L1 VM.MORBUHE004 5 991-455     5.407   0.   0.                     2081000                  1                
   28 L1 VPCOLOMUHE004 51028-445     31.93   0.   0.                     2081000                  1                
   30 L1 VSCRU19UTE000 5 998-473     -52.4   0.   0.                     2241000                  1                
   31 L1 VSCRU31UT3001 5 998-473     -16.5   0.   0.                     2241000                  1                
   32 L1 VSCRU16UTE002 51001-466     -36.8   0.   0.                     2241000                  1                
   35 L1 VCORUMBUHE003 5 984-494     -166.   0.   0.                     1481000                  1                
   36 L1 VS.MESAUHE002 5 984-549     -820.   0.   0.                     1471000                  1                
   37 L1 TS.MESASIN000 51011-555     -313.   0.   0.                     1471000                  1                
   38 L1 NGRAJA2SIN001 51009-474     -76.8   0.   0.                     2211000                  1                
   41 L1 TVITOR2SIN001 51013-554     -53.9   0.   0.                     2341000                  1                
   44 L1 NGRAJA1SIN001 51010-474     -74.2   0.   0.                     2211000                  1                
   47 L1 TVITOR1SIN001 51013-554     -57.7   0.   0.                     2341000                  1                
   48 L1 QIBIUNASIN004 5 950-441     -529.   0.   0.    86               2041000                  1                
   50 L1 QTPRETOSIN001 5 990-440     67.47   0.   0.                     2011000                  1                
   52 L  EGNA-I--RJ345 51065-528                                         2221000                  1                
   53 L1 QGNA1G-UTE000 5 974-528     -126.   0.   0.                     2221000                  1                
   54 L1 QGNA1V-UTE000 5 974-528     -187.   0.   0.                     2221000                  1                
   56 L  IIVAIP3-PR069 6 928-435                                         2011000                  1                
   57 L  IIVAIP2-PR069 6 874-435                                         201 960                  1                
   58 L  UIVAIP2-PR000 61045-435                                         201 960                  1                
   59 L  UIVAIP3-PR000 61041-435                                         2011000                  1                
   60 L  AF.IGUA-PR765 11027-430                                         2011000                  1                
   61 L  CFOZ60--PR500111069-428                                         2401000                  1                
   62 L  AIV-FZ1CAP765 11044-438                                         2011000                  1                
   63 L  AIV-FZ2CAP765 11044-438                                         2011000                  1                
   64 L  AIV-FZ3CAP765 11042-438                                         2011034                  1                
   65 L  AIVAIPO-PR765 11059-435                                         2011000                  1                
   66 L  BIVAIPA-PR525 21059-435                                         1011000                  2                
   67 L  IIVAIP1-PR069 6 873-435                            .24   0.     2011000                  1                
   68 L  UIVAIP1-PR000 61045-435                                         2011000                  1                
   69 L  AIV-IT1CAP765 11052-432                                         2011000                  1                
   70 L  AIV-IT2CAP765 11052-432                                         2011000                  1                
   71 L  AIV-IT3CAP765 11052-432                                         2011014                  1                
   72 L  AITABER-SP765 11054-437                                         2011000                  1                
   73 L  AIT-TP1CAP765 11024-434                                         2011000                  1                
   74 L  AIT-TP2CAP765 11025-434                                         2011000                  1                
   75 L  AIT-TP3CAP765 11022-434                                         2011000                  1                
   76 L  ATPRETO-SP765 1 999-441                                         2011000                  1                
   77 L  CTPRETO-SP500 31067-443                                         2021000                  1                
   78 L  ETPRETO-SP345 51012-440                                         2041000                  1                
   79 L  ITPRETO-SP069 6 947-443                                         2011000                  1                
   80 L  UTPRET3-SP000 61007-443                                         2011000                  1                
   81 L  UTPRET4-SP000 6 969-440                                         2011000                  1                
   82 L  ETPRET2-SP345 51012-441                                         2041000                  1                
   84 L  GRESEN2-RJ138 51005-463                                         2251000                  1                
   85 L  CFOZ50--PR500 31073-.12                            60.   0.     2411000                  1                
   86 L1 EIBIUNA-SP345 51030-441     -2391   0.   0.                     2041000                  1                
   87 L  CRESEND-RJ500 31100-459                                         2211000                  1                
   90 L  EVIANA--ES345 51116-553                                         2341010                  1                
   91 L  NVIANT1-ES013 61109-556                                         2341010                  1                
   92 L  CSB-SM1CAP500 31140-523                                         1471000                  1                
   93 L  CSB-SM2CAP500 31162-527                                         1471000                  1                
   94 L  CSB-SM3CAP500 31160-526                                         1471000                  1                
   95 L  NVIANT2-ES013 61109-556                                         2341010                  1                
   96 L  NVIANT3-ES013 61109-556                                         2341000                  1                
   99 L  CAS-AR1-SP500 31090-403                                         2021000                  1                
  100 L  CMARIMB-MG500 31074-422                                         1881000                  1                
  101 L  CARARAQ-SP500 31084-407                                         2021000                  1                
  102 L  CP.CALD-MG500 31100-435                                         1881000                  1                
  103 L  CCAMPIN-SP500 31092-434                                         2021000                  1                
  104 L  CC.PAUL-SP500 31116-453                                         2021000                  1                
  105 L  CANGRA--RJ500 31087-457                           117.   0.     2211000                  1                
  106 L  CADRIAN-RJ500 31083-468                                         2211000                  1                
  107 L  CGRAJAU-RJ500 31082-470                                         2211000                  1                
  108 L  CS.JOSE-RJ500 31078-469                                         2211000                  1                
  110 L  UGR1T52-RJ000 61032-474                                         2211000                  1                
  112 L  CBA-IB1-PR500 31141-445                                         1011000                  2                
  113 L  CBA-IB2-PR500 31141-445                                         1011000                  2                
  114 L  CBA-IT1-PR500 31141-445                                         1011000                  2                
  115 L  CBA-IT1CAP500 31094-457                                         1011000                  2                
  116 L  GIMBTAP-RJ138 51076-488                                         2261000                  1                
  117 L  CCAMPO2-RJ500 31137-533                                         2211000                  1                
  118 L  UBANDT4-GO000 61047-511                                         1481000                  1                
  119 L  NBANDT4-GO013 61047-511                                         1481000                  1                
  120 L  EP.CALD-MG345 5 994-450                                         1891000                  1                
  121 L  UPCAT51-MG000 61049-453                                         1881000                  1                
  122 L  CIBIUNA-SP500 31096-441                                         2021000                  1                
  123 L  ECAMPIN-SP345 51017-441                                         2041000                  1                
  124 L  UCAMP51-SP000 61030-442                                         2021000                  1                
  125 L  CIB-BA1CAP500 31046-435                                         2021000                  1                
  126 L  EGUARUL-SP345 51038-443                                         2041000                  1                
  127 L  EMO-RL1-SP345 51042-440                                         2041000                  1                
  128 L  EMO-RL2-SP345 51042-440                                         2041015                  1                
  129 L  EMOGI---SP345 51041-441                                         2041000                  1                
  130 L  CIB-BA2CAP500 31046-436                                         2021000                  1                
  131 L  EM.MORA-MG345 51044-462                                         1891000                  1                
  133 L  UADRT1A-RJ000 61063-485                                         2221000                  1                
  134 L  ELCBARR-SP345 51044-461                                         2041000                  1                
  135 L  UJACT1A-RJ000 61016-477                                         2221000                  1                
  136 L  EFURNAS-MG345 51057-471                                         1891000                  1                
  137 L  UJACT2A-RJ000 61016-477                                         2221000                  1                
  138 L  EITUTIN-MG345 51086-497                                         1891000                  1                
  139 L  UADRT51-RJ000 61064-478                                         2211014                  1                
  140 L  EADRIAN-RJ345 51016-480                                         2221000                  1                
  141 L  UADRT53-RJ000 61083-483                                         2211000                  1                
  142 L  UADRT55-RJ000 61080-483                                         2211060                  1                
  143 L  UADRT2B-RJ000 61064-485                                         2221030                  1                
  144 L  EJACARE-RJ345 51040-477                                         2221000                  1                
  145 L  UADRT1B-RJ000 61063-485                                         2221000                  1                
  146 L  UADRT2A-RJ000 61063-485                                         2221000                  1                
  147 L  ECAMPOS-RJ345 51088-528                                         2221000                  1                
  148 L  UCAMPO1-RJ000 61087-530                                         2221000                  1                
  149 L  EVITORI-ES345 51113-554                                         2341000                  1                
  150 L  UVITAT1-ES000 61115-559                                         2341000                  1                
  152 L  UVITAT2-ES000 61116-559                                         2341000                  1                
  153 L  UVITAT3-ES000 61117-560                                         2341000                  1                
  154 L  NVITAT2-ES013 61116-559                                         2341000                  1                
  155 L  NVITAT3-ES013 61117-560                                         2341000                  1                
  156 D  NVITAT4-ES013 6 996  0.                                         2341000                  1                
  158 D  UVITAT4-ES000 6 996  0.                                         2341000                  1                
  159 L  NJA-R30-RJ013 61016-477                                         2221000                  1                
  160 L  NJB-R60-RJ013 6 991-477                                         2221000                  1                
  161 L  FMO-FCE-SP230 5 994-442                                         2051000                  1                
  162 L  UCAMAT1-SP000 61060-443                                         2041000                  1                
  163 L  NCAMPI1-SP013 61028-443                                         2041000                  1                
  164 L  UPCAT02-MG000 61074-448                                         1891000                  1                
  165 L  NP.CAL2-MG013 61041-448                                         1891000                  1                
  166 L  UJACT1B-RJ000 61016-477                                         2221000                  1                
  167 L  NJA-R60-RJ013 61016-477                                         2221000                  1                
  169 L GCSJOSE2-RJ138 51017-477                                         2241000                  1                
  170 L  GP.CALD-MG138 51030-448                                         1961000                  1                
  171 L  GCAMPI1-SP138 51065-443                                         2071000                  1                
  172 L  GIMBARE-RJ138 51034-479                                         2261000                  1                
  173 L GCADRIAN-RJ138 51021-485                                         2261000                  1                
  174 L GCR.LEAO-RJ138 51070-517                                         2281000                  1                
  175 L GCCAMPOS-RJ138 51010-529                                         2291000                  1                
  176 L  UCAMP54-SP000 61027-442                                         2021000                  1                
  177 L  GVITOR1-ES138 51005-559                                         2361000                  1                
  178 L GCGRAJAU-RJ138 51002-474                                         2241000                  1                
  179 L  UGR2T54-RJ000 61032-474                                         2211000                  1                
  180 L GCJACARE-RJ138 51006-477                                         2241000                  1                
  181 L  GANGDEF-RJ138 51000-457                                         2211037                  1                
  182 L  GFUNIL--RJ138 51015-463                                         2251000                  1                
  183 L  GC.PAUL-SP138 51017-456                                         2141000                  1                
  184 L GCS.CRUZ-RJ138 51013-473                                         2241000                  1                
  185 L  GANGRA--RJ138 51041-477                                         2251000                  1                
  186 L  NCAMP54-SP013 61027-442                                         2021000                  1                
  187 L  GM.MORA-MG138 51044-460                                         1951000                  1                
  189 L  UBGERT1-DF000 61187-545                                         1591000                  1                
  190 L  GP.COL--MG138 51016-450                                         2081000                  1                
  192 L  NCAMPO1-RJ013 61087-530                                         2221000                  1                
  194 L  NADRT55-RJ013 6 990-483                                         2211080                  1                
  195 L  NADRT53-RJ013 6 993-483                                         2211000                  1                
  196 L  NCAMP51-SP013 6 944-442                                         2021000                  1                
  197 L  NADRT51-RJ013 61064-478                                         2211014                  1                
  198 L  NPCALAT-MG013 6 962-453                                         1881000                  1                
  199 L  NVITAT1-ES013 61115-559                                         2341000                  1                
  200 L  UUCAMP1-RJ000 61030-531                                         2291000                  1                
  201 L  VRSIL-1UTE000 51030-531                                         2291000                  1                
  202 L  UUCAMP2-RJ000 61030-531                                         2291000                  1                
  203 L  VRSIL-2UTE000 51030-531                                         2291000                  1                
  204 L  NADRT1B-RJ013 61063-485                                         2221000                  1                
  205 L  NADRT2A-RJ013 61063-485                                         2221000                  1                
  206 L  NADRT2B-RJ013 61064-485                                         2221030                  1                
  208 L  NBGERT1-DF013 61187-545                                         1591000                  1                
  209 L  NADRT1A-RJ013 61063-485                                         2221000                  1                
  210 L  CITUMBI-MG500 31088-472                                         1881000                  1                
  211 L  UCAMPO2-RJ000 61087-530                                         2221000                  1                
  212 L  NCAMPO2-RJ013 61087-530                                         2221000                  1                
  213 L  EMARIMB-MG345 51019-438                                         1891000                  1                
  214 L  UMARIMB-MG000 61097-443                                         1881000                  1                
  216 L  EP.COL--MG345 51063-455                                         1891000                  1                
  217 L  EITUMBI-MG345 51061-482                                         1891000                  1                
  218 L  EBANDEI-GO345 51069-511                                         1481000                  1                
  219 L  EB.SUL--DF345 51112-538                                         1581000                  1                
  220 L  ECORUMB-GO345 51059-495                                         1481000                  1                
  221 L  LB.GERA-DF034 51060-545                                         160 991                  1                
  222 L  UBSULT6-DF000 61116-539                                         1581000                  1                
  223 L  UBANDT1-GO000 61046-511                                         1481000                  1                
  224 L  UBANDT2-GO000 61044-511                                         148 987                  1                
  225 L  FITUMBI-MG230 51050-484                                         1901000                  1                
  226 L  FBANDEI-GO230 51076-511                                         1491000                  1                
  227 L  FB.GERA-DF230 51117-539                                         1591000                  1                
  228 L  FB.SUL--DF230 51115-539                                         1591000                  1                
  229 L  FB.ALTO-GO230 51003-562                                         1491000                  1                
  230 L  FS.MESA-GO230 51013-553                                         1491000                  1                
  231 L  FR.VERD-GO230 51064-488                                         1491000                  1                
  232 L  NBSULT6-DF013 61116-539                                         1581000                  1                
  233 L  CSAMAMB-DF500 31174-540                                         1571000                  1                
  234 L  ESAMAMB-DF345 51007-538                                         1581000                  1                
  235 L  CS.MESA-GO500 31142-555                                         1471000                  1                
  236 L  GB.SUL--DF138 51036-543                                         1601000                  1                
  237 L  GSAMAMB-DF138 51008-541                                         1601000                  1                
  238 L  GR.VERD-GO138 51004-493                                         1531000                  1                
  239 L  GS.MESA-GO138 51046-556                                         1541000                  1                
  240 L  URVERT1-GO000 61017-493                                         1491000                  1                
  241 L  NRVERT1-GO013 61017-493                                         1491000                  1                
...
99999
DLIN
(De )d O d(Pa )NcEPM( R% )( X% )(Mvar)(Tap)(Tmn)(Tmx)(Phs)(Bc  )(Cn)(Ce)Ns(Cq)(1)(2)(3)(4)(5)(6)(7)(8)(9)(10 (U) Uop
   38       17954         3.0195         1.                     200.200.  200.                                 1   1
   44       11052             3.         1.                     200.200.  200.                                 1   1
   50        81 4          2.498         1.                     500.500.  500.                                 1   1
   52       147 1      .16 1.64627.714                          10581539  1539
   52       147 2      .16 1.646 27.71                          10581539  1539
   53        52 1          3.255        .95                     10351242  1449                                 1   1
   54        52 1         2.1898        .95                     560.672.  784.                                 1   1
   56        59 3          3.385         1.                     550.550.  550.                                 1   1
   57        58 2          3.606         1.                     550.550.  550.                                 1   1
   60        62 1     .076  1.85 927.8                          41334174  4174
   60        63 2     .076  1.85 929.1                          41334174  4174
   60        64 3     .082 1.899 954.5                          36834174  4174
   60     43810 2           .806      .9524                     16501815  1880                                 1   1
   60     43862 1           .743      .9524                     16501815  1792                                 1   1
   60     43899 3            .74      .9524                     16501729  1792                                 1   1
   60     43915 4           .746      .9524                     15721815  1880                                 1   1
   60     43921 5           .731      .9524                     15721980  2200                                 1   1
   61     43421 1     .116 1.999 245.8                          29103624  3623
   61     43422 2     .116 1.999 245.8                          29103624  3623
   61     43810 2          -.164         1.                     16501815  1880                                 1   1
   61     43862 1          -.121         1.                     16501815  1792                                 1   1
   61     43899 3          -.117         1.                     16501729  1792                                 1   1
   61     43915 4          -.123         1.                     15721815  1880                                 1   1
   61     43921 5          -.114         1.                     15721980  2200                                 1   1
   65        58 2           .823         1.                     16921861  1880                                 1   1
   65        59 3           .773         1.                     16501879  1947                                 1   1
   65        68 1           .843         1.                     16501861  2047                                 1   1
   66        68 1           -.17      1.019 .8381.053        99916501815321995                                 1   1
   67        68 1          3.649         1.                     550.550.  550.                                 1   1
   72        69 1 T   .064  1.53  760.                          41334174  4174
   72        70 2     .063  1.53 755.7                          41334174  4174
   72        71 3     .064  1.54  760.                          41334174  4174
   76        73 1 T   .072  1.75 877.5                          41334174  4174
   76        74 2     .072  1.75  873.                          41334174  4174
   76        75 3 T   .078  1.79 898.2                          41334174  4174
   76        80 3           .697         1.                     16501815  1995                                 1   1
   76        81 4          1.028         1.                     15001650  1650                                 1   1
   76     41512 5           .993         1.                     15001650  1650                                 1   1
   76     41514 6           .983         1.                     15001650  1650                                 1   1
   76     41516 7           .931         1.                     15001800  1800                                 1   1
   76     41518 1           .839         1.                     16501650  1650                                 1   1
   76     41520 2           .817         1.                     16501815  1815                                 1   1
   77        80 3           -.03      1.113  .88 1.16         7716501815321995                                 1   1
   77       104 1 T   .167  2.54 216.6                          18552337  2337
   77       598 1 T   .106 1.441 133.4                          18552252  2252
   77      3383 1     .114 1.712259.62                          27282728  2728
   77     41518 1          -.165      1.113  .88 1.16         7716501650331650                                 1   1
   77     41520 2          -.162      1.113  .88 1.16         7716501815331815                                 1   1
   78        81 4          -.107      1.084 .8591.115         7815001650321650                                 1   1
   78       449 1 T  .0742 .6448 11.34                          11841184  1392
   78       449 2 T  .0742 .6448 11.34                          11841184  1392
   78       464 3 T  .1089  .973 17.07                          912.1103  1103
   78       471 1    .0922 .8014 14.08                          11841392  1392
   78       471 2    .0922 .8014 14.08                          11841392  1392
   78       474 1     .068  .944  21.2                          12801613  1613
   78     41512 5          -.093      1.084 .8591.115         7815001650331650                                 1   1
   78     41820 1     .001  .001                                99999999  9999
   78     41823 1     .001  .001                                99999999  9999
   79        80 3          3.545         1.                     550.550.  550.                                 1   1
   82        86 1 T   .187 2.602  60.1                          12801613  1613
   82       449 3 T    .06   .63 12.84                          13501350  1350
   82       449 4 T    .06   .63 12.84                          13501350  1350
   82     41514 6          -.092      1.081 .8591.115         8215001650331650                                 1   1
   82     41516 7          -.058      1.081 .8591.115         8215001800331800                                 1   1
   82     41821 1     .001  .001                                99999999  9999
   82     41822 1     .001  .001                                99999999  9999
   84      1780 1       .7  1.78  .454                          120.120.  120.
   84      1780 2       .7  1.78  .454                          120.120.  120.
   84     11797 1      .32  .815 .2079                          122.130.  122.
   84     21797 1      .32  .815 .2079                          122.130.  122.
   84     42417 5     .004-1.667         1.                     300.359.  419.                                 1   1
   85      1103 3 T  .0058.10069 10.04                          27283377  3377
   85      1103 4 T .00564.09795  9.69                          27283377  3377
   86        48 1           .725       1.04                     10501050  1050                                 1   1
   86       474 1     .155 2.162  49.5                          12801613  1613
   86       488 1    .09481.4987 41.91                          20202390  2390
   86       488 2    .09481.4987 41.91                          20202390  2390
   86     41522 1           -.25      .9832 .8951.048       -122750.750.33750.                                 1   1
   86     41524 2          -.254      .9832 .8951.048       -122750.750.33750.                                 1   1
   86     41526 3           .236      .9832 .8951.048       -122750.900.331050                                 1   1
   87     42417 5     .121 4.833      1.055   .9  1.1        -84300.359.21419.                                 1   1
   87     42426 1          8.333         1.                     150.180.  180.                                 1   1
   87     42428 2         11.458         1.                     120.144.  144.                                 1   1
   90      2608 1          4.847      1.005                     225.270.  304.                                 1   1
   90      2618 2          4.861      1.005                     225.270.  304.                                 1   1
   90      2628 3           4.65      1.005                     225.270.  304.                                 1   1
   90      3032 1 T   .225 2.468 41.54                          747.747.  747.
   90     42441 4          3.081      1.005                     400.480.  560.                                 1   1
   91      2608 1            9.7         1.                      75. 75.   75.                                 1   1
   95      2618 2          9.773         1.                      75. 75.   75.                                 1   1
   96      2628 3           9.83         1.                      75. 75.   75.                                 1   1
   99       101 1     .198 3.098 317.5                          20002000  2000
   99       556 1     .001  .001       1.05                     99999999  9999                                 1   1
  100        20 1            .79         1.                     16201620  1620                                 1   1
  100       214 9          2.979         1.                     560.717.  717.                                 1   1
  100       535 1 T   .153 2.356 203.8                          17321732  1732
  100      3110 1    .12531.8381 160.4                          19922390  2390
  100      4598 1     .006  .097   7.4                          18552337  2337
  100      4598 2     .006  .086   7.2                          18552337  2337
  100      4598 3    .0064 .0824 7.176                          19922390  2390
  101       102 1     .156  2.46 208.5                          18552337  2337
  101       103 1      .15  2.39 202.6                          18552337  2337
  102       12151          2.911       1.05                     560.717.  717.                                 1   1
  102      1503 1     .129 1.993 167.7                          18552337  2337
  103       12451          2.946       1.05                     560.717.  717.                                 1   1
  103       17654         2.9116       1.05                     560.728.  728.                                 1   1
  103       609 1      .06  .946 76.26                          18552337  2337
  103      6609 1     .024  .368  31.7                          18552337  2337
  103      6609 2     .017  .26738.833                          24773464  3464
  104        87 1     .051  .782  66.5                          18552337  2337
  104       598 1     .075  1.15  98.9                          18552252  2252
  104       609 1     .148 2.347 193.3                          18552337  2337
  104      1503 1     .052  .792  66.5                          18552337  2337
  104      3010 1     .189 3.158 709.6                          24423464  3464
  104      3010 2     .189 3.158 709.6                          24423464  3464
  104      3383 1     .014  .205 30.35                          27282728  2728
  104      9626 1     .098  1.68  252.                          24732598  2598
  104     4166457         4.7375       1.05                     250.263.  270.                                 1   1
  104     4166659         4.9492       1.05                     250.270.  283.                                 1   1
  105        10 1           1.97      1.075                     777.777.  777.                                 1   1
  105        11 1            .95      1.075                     14771477  1477                                 1   1
  105       104 1     .093 1.456 122.5                          18552337  2337
  105      9601 1     .092 1.363 115.3                          18552337  2337
  105      9608 1 T   .101 1.518 127.8                          18552337  2337
  105     4240158          3.988       1.05                     400.400.  400.                                 1   1
  106       107 1     .033  .673 72.57                          25982598  2598
  106       108 1     .019  .389  42.1                          25982598  2598
  106       13951          1.962       1.05                     560.644.  672.                                 1   1
  106       14153          3.042       1.05                     560.672.  784.                                 1   1
  106       14255           2.93       1.05                     560.716.  716.                                 1   1
  106      9626 1     .012  .193 29.69                          24732598  2598
  107       11052          2.141       1.05                     600.720.  840.                                 1   1
  107       17954           2.15       1.05                     600.720.  840.                                 1   1
  107     4240756          2.142       1.05                     600.720.  840.                                 1   1
  107     4240858          2.114       1.05                     600.720.  840.                                 1   1
  108     4243111          2.327       1.05                     600.660.  684.                                 1   1
  108     4243212            2.3       1.05                     600.660.  684.                                 1   1
  108     4243313           2.27       1.05                     600.720.  840.                                 1   1
  108     4243414          2.288       1.05                     600.720.  840.                                 1   1
  112       895 1     .001  .001       1.05                     99999999  9999                                 1   1
  113       895 2     .001  .001       1.05                     99999999  9999                                 1   1
  114       895 1     .001  .001       1.05                     99999999  9999                                 1   1
  115      6609 1     .263  4.25  659.                          29103668  3668
  116       172 4D    .125  .722  .207                          145.145.  145.
  116       173 4     .625 3.608 1.003                          153.193.  193.
  117      4353 1     .131 2.346 348.3                          28023403  3403
  117      4353 2     .132  2.34 348.3                          28023403  3403
  119       118 4         15.049         1.                      75. 75.   75.                                 1   1
  120       12151          -.522      1.0111.009 1.11        120560.717.10717.                                 1   1
  120       126 1       .6  5.95  92.8                          776.977.  977.
  120       126 2     .606  6.02  93.8                          776.977.  977.
  120       164 2     .031 7.624       .957                     150.160.  160.                                 1   1
  120       697 1     .394  4.39 74.85                          853.1075  1075
  120     42000 1          7.754       .957                     150.160.  160.                                 1   1
  120     42002 3          8.027       .957                     150.161.  161.                                 1   1
  120     42004 4            7.2       .957                     150.150.  150.                                 1   1
  120     42006 5           4.54       .957                     225.270.  315.                                 1   1
  120     42008 6          4.556       .957                     225.270.  315.                                 1   1
  122      6609 1     .079 1.214 103.2                          18552337  2337
  122     41522 1         1.8016       1.05                     750.750.  750.                                 1   1
  122     41524 2         1.7995       1.05                     750.750.  750.                                 1   1
  122     41526 3         1.2804       1.05                     750.900.  1050                                 1   1
  123       120 1 T   .359 3.945  66.7                          853.1075  1075
  123       12451          -.528      1.042  .95 1.11        123560.717.17717.                                 1   1
  123       162 1          5.563      1.004                     149.176.  176.                                 1   1
  123       17654          -.413      1.042  .95 1.11        123560.728.17728.                                 1   1
  123     41504 2            5.6      1.004                     149.176.  176.                                 1   1
  123     41505 3         6.0166      1.004                     149.176.  181.                                 1   1
  123     41506 4         5.6033      1.004                     149.176.  181.                                 1   1
  123     41507 5           5.63      1.004                     149.194.  194.                                 1   1
  125       112 1     .308 3.958 444.8                          12992252  2252
  126        86 1     .109 1.826  51.2                          17072150  2150
  126        86 2     .109 1.824  51.2                          17072150  2150
  126       123 1     .252 2.761  46.5                          853.1075  1075
  126       442 1     .116 1.132  17.7                          776.977.  977.
  129       442 1 T   .067   .66  10.1                          776.977.  977.
  129     41660 1          2.436         1.                     500.590.  615.                                 1   1
  129     41662 2          2.339         1.                     500.590.  615.                                 1   1
  130       113 2     .308 3.958 444.8                          12992252  2252
  131        22 1          3.693         1.                     378.378.  378.                                 1   1
  131      3012 1     .038  .427 6.673                          853.1075  1075
  131     4202211          2.686         1.                     400.480.  560.                                 1   1
  131     4202413          2.526         1.                     400.480.  560.                                 1   1
  134        12 1            .89       .999                     11801180  1180                                 1   1
  134        13 1           5.34       .999                     99999999  9999                                 1   1
  134       120 1      .56  6.16 105.3                          853.1075  1075
  134       120 2      .55  6.13 107.7                          853.1075  1075
  134      3012 1     .071  .755 12.92                          853.1075  1075
  134      3012 2     .071  .755 12.79                          853.1075  1075
  136        16 1            .96         1.                     12801280  1280                                 1   1
  136        17 1           7.68         1.                     99999999  9999                                 1   1
  136       120 1 T    .44   4.3  66.6                          776.977.  977.
  136       120 2 T    .44  4.33  66.6                          776.977.  977.
  136       131 1     .358 3.383 52.96                          776.956.  956.
  136       138 1      .65  6.46 100.8                          776.977.  977.
  136       367 1 T    .22  2.18  33.4                          776.977.  977.
  136       367 2 T    .18  1.79 34.29                          11321132  1132
  136      4360 1     .456 4.944 83.45                          853.1075  853.
  138       331 1    .42234.0862 73.67                          11591159  1159
  138      9013 1     .325 3.207 58.69                          11231383  1383
...
(Flexibilizado para convergencia
 5591      5564 5         14.255        .98 .7261.117      -5593110.103.21120.                                 1   1
(Flexibilizado para convergencia
 5591      5568 3         13.925        .98 .7261.117      -5593110.103.21120.                                 1   1
(Flexibilizado para convergencia
 5591      5569 4         14.255        .98 .7261.117      -5593110.103.21120.                                 1   1
 5591      5597 2          -.096      1.005  .85 1.05       5591450.464.17540.                                 1   1
 5591      5598 1          -.057      1.005  .85 1.05       5591600.618.17720.                                 1   1
 5591      5601 1     1.94 10.88 18.76                          233.294.  294.
 5591      5601 2   2.136710.626 19.94                          247.309.  309.
 5591      5696 1    .0851 .6503  2.49                          150.150.  150.
 5591      8298 1     .001  .001                                99999999  9999
 5591     44076 1            .35         1.                     400.400.  400.                                 1   1
 5591     44079 1            .35         1.                     400.400.  400.                                 1   1
 5592      5597 2         26.519         1.                     99999999  9999                                 1   1
 5593      5564 5          -.995         1.                     100.103.  120.                                 1   1
 5593      8040 1 T         .001                                99999999  9999
 5593     44646 1   9.113615.659 .3405                           44. 55.   55.
 5594      5595 1          2.065       1.05                     828.994.  1240                                 1   1
 5596     44079 1           2.72         1.                     400.400.  400.                                 1   1
 5599      5598 1          1.073         1.                     99999999  9999                                 1   1
 5601      5603 1           36.7      .9768   .9  1.1      -5603 33. 34.17 40.                                 1   1
 5601      5603 2           36.7      .9768   .9  1.1      -5603 33. 34.17 40.                                 1   1
 5601      5603 3         36.757      .9768   .9  1.1      -5603 33. 40.17 46.                                 1   1
 5601      5604 3          8.425         1.                     100.120.  140.                                 1   1
 5601      5606 1          7.924         1.                     100.103.  120.                                 1   1
 5601      5608 2           8.07         1.                     100.103.  120.                                 1   1
 5602      5604 3          -.835      1.019   .9  1.1       5602100.120.17140.                                 1   1
 5602      5606 1          -.497      1.019   .9  1.1       5602100.103.17120.                                 1   1
 5602      5608 2            -.6      1.019   .9  1.1       5602100.103.17120.                                 1   1
 5602      7239 1      .79  2.24   .59                          124.154.  154.
 5602      8042 1 T         .001                                99999999  9999
 5605      5608 2          14.87         1.                     99999999  9999                                 1   1
 5607      5606 1         14.412         1.                     99999999  9999                                 1   1
 5610      5609 1     .0193.1764         1.                     425.425.  425.                                 1   1
 5611      5613 1     .548 12.63      .9831 .7261.117      -5613100.100.21428.                                 1   1
 5611      5613 2     .274 13.01      .9831 .7261.117      -5613100.100.21 54.                                 1   1
 5611      8319 4D   3.70919.343 34.77                          291.291.  291.
 5611      9524 5          13.33         1.                      90. 90.   90.                                 1   1
 5613     47068 1 T        .0001                                99999999  9999
 5616      5615 3          13.92         1.                     99999999  9999                                 1   1
 5618      5617 5          31.05         1.                     99999999  9999                                 1   1
 5620      5622 1    1.015 7.218 .2936                          99999999  9999
 5621      5623 3          13.19      .9557 .7261.117      -5623100.100.21 50.                                 1   1
 5621      5624 1         13.995      .9557 .7261.117      -5623100.100.21100.                                 1   1
 5621      5626 2         13.615      .9557 .7261.117      -5623100.104.21100.                                 1   1
 5621      5958 1    .1466    .7 1.286                          210.210.  210.
 5623      5624 1         -1.035         1.                     100.100.  100.                                 1   1
 5623      5626 2          -.585         1.                     100.104.  100.                                 1   1
 5623     47125 1 T        .0001                                99999999  9999
 5625      5624 1         27.555         1.                      30. 31.   30.                                 1   1
 5627      5626 2          7.585         1.                      30. 31.   30.                                 1   1
 5630      5632 1     .864 .6283         1.                     125.125.  125.                                 1   1
 5631      5421 2     2.04   8.7 30.34                          323.323.  323.
 5631      5633 1          12.87      .9858 .7271.117      -5633100.103.21200.                                 1   1
 5631      5633 2     .221 13.31      .9858 .7271.117      -5633100.100.21 66.                                 1   1
 5631     47264 3     .15513.805      .9858 .7261.117      -5633100.120.21120.                                 1   1
 5632      6019 1    2.13621.229 4.761                          99999999  9999
 5633      8044 1 T         .001                                99999999  9999
 5633      8045 1 T         .001                                99999999  9999
 5633     47264 3     .155 -.695         1.                     100.120.  120.                                 1   1
 5641      5643 1     .216 13.26      .9533 .7261.117      -5643100.100.21100.                                 1   1
 5641      5643 2      .17 13.19      .9533 .7261.117      -5643100.100.21100.                                 1   1
 5641      5643 3      .17 13.25      .9533 .7261.117      -5643100.100.21100.                                 1   1
 5641      5643 4     .372 13.09      .9533 .7261.117      -5643100.100.21100.                                 1   1
 5641      5643 5     .273 13.25      .9533 .7261.117      -5643100.140.21140.                                 1   1
 5645      5649 1           .001                                99999999  9999
 5645      5649 2           .001                                99999999  9999
 5649      5642 1           21.4       1.02                      71. 71.   71.                                 1   1
 5649      5646 1           3.55       1.02                     624.624.  624.                                 1   1
 5649      5647 1    .0295 3.598       1.02                     416.416.  416.                                 1   1
 5649      5648 1    .0295 3.598       1.02                     416.416.  416.                                 1   1
 5649      5650 1     .059 7.195       1.02                     208.208.  208.                                 1   1
 5649      5815 1           7.78         1.                     416.416.  208.                                 1   1
 5649      8159 1   .04571 3.093       1.05                     450.450.  450.                                 1   1
 5649     47517 1    .303412.763       1.05                     110.132.  132.                                 1   1
 5651      5081 4     .382 2.651  9.81                          477.600.  600.
 5651      5653 1          13.26      .9748 .7271.117      -5653100.100.21 15.                                 1   1
 5651      5653 2      .54 12.72      .9748 .7271.117      -5653100.100.21 50.                                 1   1
 5651      5653 3      .37 13.32      .9748 .7271.117      -5653100.120.21140.                                 1   1
 5651      5660 1           23.9         1.                     330.330.  330.                                 1   1
 5651      8165 1    .24811.2117  .154                          99999999  9999
 5653     47069 1 T        .0001                                99999999  9999
 5656      5659 1     .0193.1764         1.                     425.425.  425.                                 1   1
 5658      5656 1    .00951.5882         1.                     950.950.  950.                                 1   1
 5669      5670 1         9.3333         1.                     125.125.  125.                                 1   1
 5670      5672 1    1.129 7.466 5.403                          99999999  9999
 5670     45372 1   5.920110.582 .5565                          99999999  9999
 5671      5611 3     3.23 17.31 32.14                          250.298.  250.
 5671      5673 1          12.93      .9702 .8631.117      -5673100.120.14140.                                 1   1
 5671      5673 3           25.5      .9702 .8631.117      -5673 50. 54.14 60.                                 1   1
 5671      5673 4           26.1      .9702 .8631.117      -5673 50. 53.14 60.                                 1   1
 5671      5674 2     1.09 37.86      .9702 .9221.097      -5673 39. 39.29 39.                                 1   1
 5671      6631 1    1.738 8.307 14.54                          282.333.  282.
 5673      5674 2     1.21 -1.41         1.                      39. 39.   39.                                 1   1
 5675      5674 2     5.45 13.95         1.                      23. 23.   23.                                 1   1
 5677      8471 9      .06-1.263         1.                     150.180.  150.                                 1   1
 5677      847210    .1067  -.64         1.                     150.180.  150.                                 1   1
 5678      8356 1           .001                                99999999  9999
 5678      8357 1           .001                                99999999  9999
 5678      8473 5     .155-1.045         1.                     100.120.  140.                                 1   1
 5678      8474 6     .155-1.085         1.                     100.120.  140.                                 1   1
 5679      5318 1     .132 2.054 294.6                          25983204  2598
 5679      5684 1     .206 3.193 457.9                          25983204  2598
 5679      5684 2     .203 3.148 451.5                          25983204  2598
 5679      7249 3    .0124 2.876      1.052   .9  1.1      -5734600.720.21600.                                 1   1
 5679      7250 4    .0124 2.876      1.052   .9  1.1      -5734600.720.21600.                                 1   1
 5679      952510             4.         1.                     300.300.  300.                                 1   1
 5681      5683 1      .56 26.38      1.001 .7261.117      -5683 50. 53.21 60.                                 1   1
 5681      5683 2          25.86      1.001 .7261.117      -5683 50. 53.32 60.                                 1   1
 5681      9526 3         26.875         1.                      40. 40.   40.                                 1   1
 5683     47323 1 T        .0001                                99999999  9999
 5684      5550 1     .042  .519 50.85                          20302557  2557
 5684      5550 2     .029  .425 61.45                          25982598  2598
 5685      8670 1          1.095      .9828  .85 1.15      -5687100.120.33140.                                 1   1
 5685      8677 2          1.085      .9828  .85 1.15      -5687100.120.33140.                                 1   1
 5687      8459 1    2.393 8.618  .206                           90. 94.   94.
 5687      8461 1    2.303 8.293  .198                           90. 94.   94.
 5687      8461 2    2.303 8.293  .198                           90. 94.   94.
 5688      8990 1    .0173 2.618         1.                     600.720.  600.                                 1   1
 5688      8991 2    .0173 2.618         1.                     600.720.  600.                                 1   1
 5689      5610 1     .086  .715 2.788                          550.693.  550.
 5689      8990 1          -.383        .95   .9  1.1       5689600.720.21840.                                 1   1
 5689      8991 2          -.383        .95   .9  1.1       5689600.720.21840.                                 1   1
 5689      8994 1    .0714 7.375         1.   .9  1.1      -5578200.240.21200.                                 1   1
 5689      8995 2    .0714 7.375         1.   .9  1.1      -5578200.240.21200.                                 1   1
 5690      5746 1         2.3335         1.                     99999999  9999                                 1   1
 5690      5799 1          66.67         1.                     99999999  9999                                 1   1
 5691      5693 1          5.053      .9938   .9  1.1      -5693150.160.17180.                                 1   1
 5691     44019 2     .085 4.467      .9938   .9  1.1      -5693150.160.17180.                                 1   1
 5691     44151 3    .08675.8667      .9938   .9  1.1      -5693150.180.17180.                                 1   1
 5693     44019 2     .058  .745         1.                     150.160.  180.                                 1   1
 5693     44151 3    .0733-.5133         1.                     150.180.  180.                                 1   1
 5695      5540 1      .18  2.96  320.                          99999999  9999
 5695      6712 1           3.61       1.05   .9  1.1      -6712360.432.16504.                                 1   1
 5695      6712 2           3.61       1.05   .9  1.1      -6712360.432.21504.                                 1   1
 5696      5697 1          6.929         1.                     300.360.  360.                                 1   1
 5697      5698 1           4.47      1.023                     300.360.  360.                                 1   1
 5699     44949 1           .927       1.05                     220.308.  220.                                 1   1
 5699     44953 2           .927       1.05                     220.308.  220.                                 1   1
 5699     45629 3           .859       1.05                     220.308.  220.                                 1   1
 5699     45638 4           .859       1.05                     220.308.  220.                                 1   1
 5701      5703 2          26.12      .9657 .7271.117      -5703 50. 50.21150.                                 1   1
 5701      5703 3     .726 25.92      .9657 .7271.117      -5703 50. 50.21 60.                                 1   1
 5701      5703 4          26.14      .9657 .7271.117      -5703 50. 50.21 50.                                 1   1
...